 &PTRACERS_PARM01
 PTRACERS_numInUse=0,
# PTRACERS_Iter0=28200000.,
# PTRACERS_advScheme(1)=80,
# PTRACERS_advScheme(2)=80,
# PTRACERS_advScheme(3)=80,
# PTRACERS_advScheme(4)=80,
# PTRACERS_advScheme(5)=80,
# PTRACERS_advScheme(6)=80,
# PTRACERS_advScheme(7)=80,
# PTRACERS_advScheme(8)=80,
# PTRACERS_advScheme(9)=80,
# PTRACERS_advScheme(10)=80,
# PTRACERS_advScheme(11)=80,
# PTRACERS_advScheme(12)=80,
# PTRACERS_useGMRedi(1)=.TRUE.,
# PTRACERS_useGMRedi(2)=.TRUE.,
# PTRACERS_useGMRedi(3)=.TRUE.,
# PTRACERS_useGMRedi(4)=.TRUE.,
# PTRACERS_useGMRedi(5)=.TRUE.,
# PTRACERS_useGMRedi(6)=.TRUE.,
# PTRACERS_useGMRedi(7)=.TRUE.,
# PTRACERS_useGMRedi(8)=.TRUE.,
# PTRACERS_useGMRedi(9)=.TRUE.,
# PTRACERS_useGMRedi(10)=.TRUE.,
# PTRACERS_useGMRedi(11)=.TRUE.,
# PTRACERS_useGMRedi(12)=.TRUE.,
# PTRACERS_useKPP(1)=.FALSE.,
# PTRACERS_useKPP(2)=.FALSE.,
# PTRACERS_useKPP(3)=.FALSE.,
# PTRACERS_useKPP(4)=.FALSE.,
# PTRACERS_useKPP(5)=.FALSE.,
# PTRACERS_useKPP(6)=.FALSE.,
# PTRACERS_useKPP(7)=.FALSE.,
# PTRACERS_useKPP(8)=.FALSE.,
# PTRACERS_useKPP(9)=.FALSE.,
# PTRACERS_useKPP(10)=.FALSE.,
# PTRACERS_useKPP(11)=.FALSE.,
# PTRACERS_useKPP(12)=.FALSE.,
# PTRACERS_diffKrNr(1:32,1)=0.0083, 0.0065, 0.0038,0.0014, 0.00039,0.000092,
#           0.00003, 0.00002,0.00002,0.00002,0.00002,0.00002,
#           0.00002,0.00002,0.00002,0.00002,0.00002,0.00002,0.00002,0.00002,
#           0.00002,0.00002,0.00002,0.00005,0.00013,0.00021,0.00022,0.00022,
#           0.00022,0.00022,0.00022,0.00022,
# PTRACERS_diffKrNr(1:32,2)=0.0083, 0.0065, 0.0038,0.0014, 0.00039,0.000092,
#           0.00003, 0.00002,0.00002,0.00002,0.00002,0.00002,
#           0.00002,0.00002,0.00002,0.00002,0.00002,0.00002,0.00002,0.00002,
#           0.00002,0.00002,0.00002,0.00005,0.00013,0.00021,0.00022,0.00022,
#           0.00022,0.00022,0.00022,0.00022,
# PTRACERS_diffKrNr(1:32,3)=0.0083, 0.0065, 0.0038,0.0014, 0.00039,0.000092,
#           0.00003, 0.00002,0.00002,0.00002,0.00002,0.00002,
#           0.00002,0.00002,0.00002,0.00002,0.00002,0.00002,0.00002,0.00002,
#           0.00002,0.00002,0.00002,0.00005,0.00013,0.00021,0.00022,0.00022,
#           0.00022,0.00022,0.00022,0.00022,
# PTRACERS_diffKrNr(1:32,4)=0.0083, 0.0065, 0.0038,0.0014, 0.00039,0.000092,
#           0.00003, 0.00002,0.00002,0.00002,0.00002,0.00002,
#           0.00002,0.00002,0.00002,0.00002,0.00002,0.00002,0.00002,0.00002,
#           0.00002,0.00002,0.00002,0.00005,0.00013,0.00021,0.00022,0.00022,
#           0.00022,0.00022,0.00022,0.00022,
# PTRACERS_diffKrNr(1:32,5)=0.0083, 0.0065, 0.0038,0.0014, 0.00039,0.000092,
#           0.00003, 0.00002,0.00002,0.00002,0.00002,0.00002,
#           0.00002,0.00002,0.00002,0.00002,0.00002,0.00002,0.00002,0.00002,
#           0.00002,0.00002,0.00002,0.00005,0.00013,0.00021,0.00022,0.00022,
#           0.00022,0.00022,0.00022,0.00022,
# PTRACERS_diffKrNr(1:32,6)=0.0083, 0.0065, 0.0038,0.0014, 0.00039,0.000092,
#           0.00003, 0.00002,0.00002,0.00002,0.00002,0.00002,
#           0.00002,0.00002,0.00002,0.00002,0.00002,0.00002,0.00002,0.00002,
#           0.00002,0.00002,0.00002,0.00005,0.00013,0.00021,0.00022,0.00022,
#           0.00022,0.00022,0.00022,0.00022,
# PTRACERS_diffKrNr(1:32,7)=0.0083, 0.0065, 0.0038,0.0014, 0.00039,0.000092,
#           0.00003, 0.00002,0.00002,0.00002,0.00002,0.00002,
#           0.00002,0.00002,0.00002,0.00002,0.00002,0.00002,0.00002,0.00002,
#           0.00002,0.00002,0.00002,0.00005,0.00013,0.00021,0.00022,0.00022,
#           0.00022,0.00022,0.00022,0.00022,
# PTRACERS_diffKrNr(1:32,8)=0.0083, 0.0065, 0.0038,0.0014, 0.00039,0.000092,
#           0.00003, 0.00002,0.00002,0.00002,0.00002,0.00002,
#           0.00002,0.00002,0.00002,0.00002,0.00002,0.00002,0.00002,0.00002,
#           0.00002,0.00002,0.00002,0.00005,0.00013,0.00021,0.00022,0.00022,
#           0.00022,0.00022,0.00022,0.00022,
# PTRACERS_diffKrNr(1:32,9)=0.0083, 0.0065, 0.0038,0.0014, 0.00039,0.000092,
#           0.00003, 0.00002,0.00002,0.00002,0.00002,0.00002,
#           0.00002,0.00002,0.00002,0.00002,0.00002,0.00002,0.00002,0.00002,
#           0.00002,0.00002,0.00002,0.00005,0.00013,0.00021,0.00022,0.00022,
#           0.00022,0.00022,0.00022,0.00022,
# PTRACERS_diffKrNr(1:32,10)=0.0083, 0.0065, 0.0038,0.0014, 0.00039,0.000092,
#           0.00003, 0.00002,0.00002,0.00002,0.00002,0.00002,
#           0.00002,0.00002,0.00002,0.00002,0.00002,0.00002,0.00002,0.00002,
#           0.00002,0.00002,0.00002,0.00005,0.00013,0.00021,0.00022,0.00022,
#           0.00022,0.00022,0.00022,0.00022,
# PTRACERS_diffKrNr(1:32,11)=0.0083, 0.0065, 0.0038,0.0014, 0.00039,0.000092,
#           0.00003, 0.00002,0.00002,0.00002,0.00002,0.00002,
#           0.00002,0.00002,0.00002,0.00002,0.00002,0.00002,0.00002,0.00002,
#           0.00002,0.00002,0.00002,0.00005,0.00013,0.00021,0.00022,0.00022,
#           0.00022,0.00022,0.00022,0.00022,
# PTRACERS_diffKrNr(1:32,12)=0.0083, 0.0065, 0.0038,0.0014, 0.00039,0.000092,
#           0.00003, 0.00002,0.00002,0.00002,0.00002,0.00002,
#           0.00002,0.00002,0.00002,0.00002,0.00002,0.00002,0.00002,0.00002,
#           0.00002,0.00002,0.00002,0.00005,0.00013,0.00021,0.00022,0.00022,   #            0.00022,0.00022,0.00022,0.00022,
# PTRACERS_initialFile(1)='',
# PTRACERS_initialFile(2)='',
# PTRACERS_initialFile(3)='',
# PTRACERS_initialFile(4)='',
# PTRACERS_initialFile(5)='',
# PTRACERS_initialFile(6)='',
# PTRACERS_initialFile(7)='',
# PTRACERS_initialFile(8)='',
# PTRACERS_initialFile(9)='',
# PTRACERS_initialFile(10)='',
# PTRACERS_initialFile(11)='',
# PTRACERS_initialFile(12)='',
 &